/*--------------------------------*- C++ -*----------------------------------*\
| =========                 |                                                 |
| \\      /  F ield         | OpenFOAM: The Open Source CFD Toolbox           |
|  \\    /   O peration     | Version:  v2306                                 |
|   \\  /    A nd           | Website:  www.openfoam.com                      |
|    \\/     M anipulation  |                                                 |
\*---------------------------------------------------------------------------*/
FoamFile
{
    version     2.0;
    format      ascii;
    class       dictionary;
    object      setExprFieldsDict;
}
// * * * * * * * * * * * * * * * * * * * * * * * * * * * * * * * * * * * * * //

expressions
(
    T
    {
        field       T;
        dimensions  [0 0 0 1 0 0 0];

        constants
        {
            centre (0.5 0.5 0);
        }

        variables
        (
            "radius = 0.1"
        );

//        fieldMask
//        #{
//            // Within the radius
//            (mag(pos() - $[(vector)constants.centre]) < radius)
//
//            // but only +ve y!
//            && pos((pos() - $[(vector)constants.centre]).y()) > 0
//        #};

        expression
        #{
            20 * exp(-( ( sqr(pos().x() - $[(vector)constants.centre].x()) +
                            sqr(pos().y() - $[(vector)constants.centre].y()) ) / sqr(radius) ))
//            pos().x()
        #};
    }

    U
    {
        field       U;
        dimensions  [0 1 -1 0 0 0 0];

        expression
        #{
//            vector(1, 1, 0)
//            vector(1 / sqrt(2), (0.5 + 0.5 * sin(8 * pi() * pos().x())) / sqrt(2), 0)
            vector((0.6 + 0.4 * sin(4 * pi() * pos().y())) / sqrt(2), (0.5 + 0.5 * sin(8 * pi() * pos().x())) / sqrt(2), 0)
        #};
    }


);


// ************************************************************************* //
