/*--------------------------------*- C++ -*----------------------------------*\
| =========                 |                                                 |
| \\      /  F ield         | OpenFOAM: The Open Source CFD Toolbox           |
|  \\    /   O peration     | Version:  v2306                                 |
|   \\  /    A nd           | Website:  www.openfoam.com                      |
|    \\/     M anipulation  |                                                 |
\*---------------------------------------------------------------------------*/
FoamFile
{
    version     2.0;
    format      ascii;
    class       dictionary;
    object      blockMeshDict;
}
// * * * * * * * * * * * * * * * * * * * * * * * * * * * * * * * * * * * * * //

scale   1;

Lx  1;
Ly  1;
N   64;

vertices
(
    (0 0 0)
    ($Lx 0 0)
    ($Lx $Ly 0)
    (0 $Ly 0)
    (0 0 1)
    ($Lx 0 1)
    ($Lx $Ly 1)
    (0 $Ly 1)
);


blocks
(
    hex (0 1 2 3 4 5 6 7) (#eval "$N * $Lx" #eval "$N * $Ly" 1) simpleGrading (1 1 1)
);

edges
(
);

boundary
(
    left
    {
//        type wall;
        type            cyclic;
        neighbourPatch  right;

        faces
        (
            (0 4 7 3)
        );
    }
    right
    {
//        type wall;
        type            cyclic;
        neighbourPatch  left;

        faces
        (
            (2 6 5 1)
        );
    }
    top
    {
//        type wall;
        type            cyclic;
        neighbourPatch  bottom;

        faces
        (
            (1 5 4 0)
        );
    }
    bottom
    {
//        type wall;
        type            cyclic;
        neighbourPatch  top;

        faces
        (
            (3 7 6 2)
        );
    }
    frontAndBack
    {
        type empty;
        faces
        (
            (0 3 2 1)
            (4 5 6 7)
        );
    }
);

mergePatchPairs
(
);

// ************************************************************************* //
