/*--------------------------------*- C++ -*----------------------------------*\
| =========                 |                                                 |
| \\      /  F ield         | OpenFOAM: The Open Source CFD Toolbox           |
|  \\    /   O peration     | Version:  2306                                  |
|   \\  /    A nd           | Website:  www.openfoam.com                      |
|    \\/     M anipulation  |                                                 |
\*---------------------------------------------------------------------------*/
FoamFile
{
    version     2.0;
    format      ascii;
    arch        "LSB;label=32;scalar=64";
    class       volScalarField;
    location    "0";
    object      T;
}
// * * * * * * * * * * * * * * * * * * * * * * * * * * * * * * * * * * * * * //

dimensions      [0 0 0 1 0 0 0];

internalField   uniform 0;

boundaryField
{
    ".*"
    {
//        type    fixedValue;
//        value   $internalField;

//        type    zeroGradient;

        type    cyclic;
    }

//    left
//    {
//        type            fixedValue;
//        value           uniform 0;
//    }
//    right
//    {
//        type            fixedValue;
//        value           uniform 1;
//    }
//    top
//    {
//        type            zeroGradient;
//    }
//    bottom
//    {
//        type            zeroGradient;
//    }

    frontAndBack
    {
        type            empty;
    }
}


// ************************************************************************* //
